
 Fire Dynamics Simulator

 Current Date     : January 23, 2026  14:57:42
 Revision         : FDS-6.8.0-0-g886e009-release
 Revision Date    : Tue Apr 18 07:06:40 2023 -0400
 Compiler         : Intel ifort 2021.7.0
 Compilation Date : Tue 04/18/2023  03:22 PM

 MPI Enabled;    Number of MPI Processes:       1
 OpenMP Disabled

 MPI version: 3.1
 MPI library version: Intel(R) MPI Library 2021.6 for Windows* OS


 Job TITLE        : Formative Assignment 1 – Slow/Medium t2 Fire
 Job ID string    : A1_Enzo


 Grid Dimensions, Mesh     1

   Cells in the X Direction            42
   Cells in the Y Direction            38
   Cells in the Z Direction            22
   Number of Grid Cells             35112


 Physical Dimensions, Mesh     1

   Length (m)                      21.000
   Width  (m)                      19.000
   Height (m)                      11.000
   Initial Time Step (s)            0.241

 Total Number of Grid Cells         35112


 Maximum Cell Aspect Ratio          1.000
 CFL Velocity Norm                      2


 Miscellaneous Parameters

   Simulation Start Time (s)          0.0
   Simulation End Time (s)          100.0
   Background Pressure (Pa)     101325.00
   Ambient Temperature (C)          20.00

   3D Cartesian
   VLES Calculation
   Eddy Viscosity Model:  Deardorff (C_DEARDORFF = 0.10)
   Surface INERT Eddy Viscosity Model:  WALE (C_WALE = 0.60)
   Surface FIRE Eddy Viscosity Model:  WALE (C_WALE = 0.60)
   Surface LEAK Eddy Viscosity Model:  WALE (C_WALE = 0.60)
   Turbulent Prandtl Number:         0.50
   Turbulent Schmidt Number:         0.50


 Pressure solver information

   Solver:                            FFT
   Velocity tolerance (m/s):    2.500E-01
   Press eqn res tol (1/s^2):   8.000E+01
   Max pressure iterations:            10


 Background Stratification

      Z (m)     P_0 (Pa)    TMP_0 (C)
   ------------------------------------
       10.75    101199.06     20.00
       10.25    101204.90     20.00
        9.75    101210.75     20.00
        9.25    101216.60     20.00
        8.75    101222.47     20.00
        8.25    101228.32     20.00
        7.75    101234.17     20.00
        7.25    101240.04     20.00
        6.75    101245.89     20.00
        6.25    101251.74     20.00
        5.75    101257.59     20.00
        5.25    101263.46     20.00
        4.75    101269.32     20.00
        4.25    101275.17     20.00
        3.75    101281.02     20.00
        3.25    101286.89     20.00
        2.75    101292.75     20.00
        2.25    101298.60     20.00
        1.75    101304.48     20.00
        1.25    101310.33     20.00
        0.75    101316.18     20.00
        0.25    101322.03     20.00


 Mass Fraction Transformation Matrix to Convert Species Mixtures (Columns) to Primitive Species (Rows)

                         AIR       PROPANE   PRODUCTS
   NITROGEN              0.762470  0.000000  0.716194
   OXYGEN                0.230997  0.000000  0.000000
   CARBON DIOXIDE        0.000591  0.000000  0.177828
   WATER VAPOR           0.005941  0.000000  0.104764
   CARBON MONOXIDE       0.000000  0.000000  0.000000
   SOOT                  0.000000  0.000000  0.001214
   HYDROGEN              0.000000  0.000000  0.000000
   HYDROGEN CYANIDE      0.000000  0.000000  0.000000
   PROPANE               0.000000  1.000000  0.000000


 Primitive Species Information

   NITROGEN
   Gas Species
   Molecular Weight (g/mol)                28.01340
   Ambient Density (kg/m^3)                1.165
           Enthalpy of Formation (J/kg)  0.000E+00

   OXYGEN
   Gas Species
   Molecular Weight (g/mol)                31.99880
   Ambient Density (kg/m^3)                1.330
           Enthalpy of Formation (J/kg)  0.000E+00

   CARBON DIOXIDE
   Gas Species
   Molecular Weight (g/mol)                44.00950
   Ambient Density (kg/m^3)                1.830
           Enthalpy of Formation (J/kg) -8.941E+06

   WATER VAPOR
   Gas Species
   Molecular Weight (g/mol)                18.01528
   Ambient Density (kg/m^3)                0.749
           Enthalpy of Formation (J/kg) -1.342E+07

   CARBON MONOXIDE
   Gas Species
   Molecular Weight (g/mol)                28.01010
   Ambient Density (kg/m^3)                1.164
           Enthalpy of Formation (J/kg) -3.946E+06

   SOOT
   Gas Species
   Molecular Weight (g/mol)                12.01070
   Ambient Density (kg/m^3)                0.499
           Enthalpy of Formation (J/kg)  0.000E+00

   HYDROGEN
   Gas Species
   Molecular Weight (g/mol)                 2.01588
   Ambient Density (kg/m^3)                0.084
           Enthalpy of Formation (J/kg)  0.000E+00

   HYDROGEN CYANIDE
   Gas Species
   Molecular Weight (g/mol)                27.02534
   Ambient Density (kg/m^3)                1.123
           Enthalpy of Formation (J/kg)  4.924E+06

   PROPANE
   Gas Species
   Molecular Weight (g/mol)                44.09562
   Ambient Density (kg/m^3)                1.833
           Enthalpy of Formation (J/kg) -2.374E+06


 Tracked (Lumped) Species Information

   AIR
   Molecular Weight (g/mol)            28.75198
   Ambient Density (kg/m^3)            1.195
   Initial Mass Fraction               1.000
   Enthalpy of Formation (J/kg)     -8.504E+04

   Sub Species                    Mass Fraction     Mole Fraction
   NITROGEN                       7.624699E-01      7.825727E-01
   OXYGEN                         2.309974E-01      2.075588E-01
   CARBON DIOXIDE                 5.914650E-04      3.864118E-04
   WATER VAPOR                    5.941209E-03      9.482037E-03
 
     Viscosity (kg/m/s) Ambient,  293 K:  1.796E-05
                                  500 K:  2.612E-05
                                 1000 K:  4.125E-05
                                 1500 K:  5.371E-05
                                 2000 K:  6.476E-05
   Therm. Cond. (W/m/K) Ambient,  293 K:  2.556E-02
                                  500 K:  3.814E-02
                                 1000 K:  6.686E-02
                                 1500 K:  9.249E-02
                                 2000 K:  1.153E-01
        Enthalpy (J/kg) Ambient,  293 K: -9.012E+04
                                  500 K:  1.222E+05
                                 1000 K:  6.721E+05
                                 1500 K:  1.270E+06
                                 2000 K:  1.896E+06
    Spec. Heat (J/kg/K) Ambient,  293 K:  1.016E+03
                                  500 K:  1.042E+03
                                 1000 K:  1.156E+03
                                 1500 K:  1.229E+03
                                 2000 K:  1.270E+03
   Diff. Coeff. (m^2/s) Ambient,  293 K:  1.991E-05
                                  500 K:  4.961E-05
                                 1000 K:  1.580E-04
                                 1500 K:  3.095E-04
                                 2000 K:  4.984E-04
 Gibbs Energy Amb. (kJ/mol),  293 K: -5.873E+01
                                  500 K: -1.007E+02
                                 1000 K: -2.117E+02
                                 1500 K: -3.312E+02
                                 2000 K: -4.568E+02

   PROPANE
   Molecular Weight (g/mol)            44.09562
   Ambient Density (kg/m^3)            1.833
   Initial Mass Fraction               0.000
   Enthalpy of Formation (J/kg)     -2.374E+06

   Sub Species                    Mass Fraction     Mole Fraction
   PROPANE                        1.000000E+00      1.000000E+00
 
     Viscosity (kg/m/s) Ambient,  293 K:  8.079E-06
                                  500 K:  1.310E-05
                                 1000 K:  2.234E-05
                                 1500 K:  2.955E-05
                                 2000 K:  3.574E-05
   Therm. Cond. (W/m/K) Ambient,  293 K:  1.821E-02
                                  500 K:  4.581E-02
                                 1000 K:  1.212E-01
                                 1500 K:  1.890E-01
                                 2000 K:  2.465E-01
        Enthalpy (J/kg) Ambient,  293 K: -2.382E+06
                                  500 K: -1.946E+06
                                 1000 K: -2.769E+05
                                 1500 K:  1.900E+06
                                 2000 K:  4.336E+06
    Spec. Heat (J/kg/K) Ambient,  293 K:  1.646E+03
                                  500 K:  2.553E+03
                                 1000 K:  3.960E+03
                                 1500 K:  4.669E+03
                                 2000 K:  5.034E+03
   Diff. Coeff. (m^2/s) Ambient,  293 K:  1.110E-05
                                  500 K:  2.862E-05
                                 1000 K:  9.316E-05
                                 1500 K:  1.833E-04
                                 2000 K:  2.954E-04
 Gibbs Energy Amb. (kJ/mol),  293 K: -1.839E+02
                                  500 K: -2.447E+02
                                 1000 K: -4.295E+02
                                 1500 K: -6.584E+02
                                 2000 K: -9.217E+02

   PRODUCTS
   Molecular Weight (g/mol)            28.15067
   Ambient Density (kg/m^3)            1.170
   Initial Mass Fraction               0.000
   Enthalpy of Formation (J/kg)     -2.996E+06

   Sub Species                    Mass Fraction     Mole Fraction
   NITROGEN                       7.161941E-01      7.197034E-01
   CARBON DIOXIDE                 1.778284E-01      1.137479E-01
   WATER VAPOR                    1.047637E-01      1.637037E-01
   CARBON MONOXIDE                0.000000E+00      0.000000E+00
   SOOT                           1.213841E-03      2.845000E-03
   HYDROGEN CYANIDE               0.000000E+00      0.000000E+00
 
     Viscosity (kg/m/s) Ambient,  293 K:  1.612E-05
                                  500 K:  2.389E-05
                                 1000 K:  3.893E-05
                                 1500 K:  5.143E-05
                                 2000 K:  6.244E-05
   Therm. Cond. (W/m/K) Ambient,  293 K:  2.340E-02
                                  500 K:  3.617E-02
                                 1000 K:  6.711E-02
                                 1500 K:  9.629E-02
                                 2000 K:  1.225E-01
        Enthalpy (J/kg) Ambient,  293 K: -3.002E+06
                                  500 K: -2.771E+06
                                 1000 K: -2.160E+06
                                 1500 K: -1.482E+06
                                 2000 K: -7.633E+05
    Spec. Heat (J/kg/K) Ambient,  293 K:  1.090E+03
                                  500 K:  1.143E+03
                                 1000 K:  1.298E+03
                                 1500 K:  1.404E+03
                                 2000 K:  1.467E+03
   Diff. Coeff. (m^2/s) Ambient,  293 K:  1.952E-05
                                  500 K:  4.957E-05
                                 1000 K:  1.601E-04
                                 1500 K:  3.148E-04
                                 2000 K:  5.078E-04
 Gibbs Energy Amb. (kJ/mol),  293 K: -1.525E+02
                                  500 K: -1.946E+02
                                 1000 K: -3.070E+02
                                 1500 K: -4.290E+02
                                 2000 K: -5.578E+02


 Gas Phase Reaction Information

      Fuel                                           Heat of Combustion (kJ/kg)
      PROPANE                                                        45679.3589

      Primitive Species Stoich. Coeff.
      Species ID                                                          Molar
      NITROGEN                                                         0.000000
      OXYGEN                                                          -4.926573
      CARBON DIOXIDE                                                   2.926573
      WATER VAPOR                                                      4.000000
      SOOT                                                             0.073427
      PROPANE                                                         -1.000000

      Tracked (Lumped) Species Stoich. Coeff.
      Species ID                                             Molar         Mass
      AIR                                               -23.735791   -15.476618
      PROPANE                                            -1.000000    -1.000000
      PRODUCTS                                           25.809218    16.476618

      Reaction Kinetics

      Fast chemistry

      ODE Solver:  EXPLICIT EULER

      Extinction Model:  EXTINCTION 1
      Auto-Ignition Temperature (C):            -273.1
      Critical Flame Temperature (C):           1447.0

      Prescribed Radiative Fraction:             0.290


 Material Information


 Surface Conditions

   0 INERT (DEFAULT)

   1 FIRE
     HRR Per Unit Area (kW/m2)       1200.0
     PROPANE Mass Flux (kg/s/m2)   2.627E-02

   2 LEAK
     Normal Velocity (m/s)        -0.050
     AIR Mass Fraction         1.000

   3 OPEN
     Passive Vent to Atmosphere

   4 MIRROR
     Symmetry Plane

   5 INTERPOLATED

   6 PERIODIC

   7 HVAC

   8 MASSLESS TRACER

   9 DROPLET

  10 MASSLESS TARGET

  11 PERIODIC FLOW ONLY


 Lagrangian Particle Classes


 Cut-off Density and Temperature

    Minimum Temperature:  -259.1 C
    Maximum Temperature:  2726.8 C
    Minimum Density:  1.195E-01 kg/m3
    Maximum Density:  7.677E+01 kg/m3


 Device Information

   1 ID: T_OCCUPANT
     QUANTITY: TEMPERATURE
     Coordinates (X,Y,Z):    1.400000E+01    1.300000E+01    1.900000E+00
     TEMPORAL STATISTIC: TIME AVERAGE
   2 ID: VIS_ALARM_1
     QUANTITY: VISIBILITY
     Species ID: SOOT
     Coordinates (X,Y,Z):    2.500000E+00    6.000000E+00    2.000000E+00
     TEMPORAL STATISTIC: TIME AVERAGE
   3 ID: VIS_ALARM_2
     QUANTITY: VISIBILITY
     Species ID: SOOT
     Coordinates (X,Y,Z):    7.000000E+00    5.500000E+00    2.000000E+00
     TEMPORAL STATISTIC: TIME AVERAGE
   4 ID: VIS_ALARM_3
     QUANTITY: VISIBILITY
     Species ID: SOOT
     Coordinates (X,Y,Z):    2.500000E+00    6.000000E+00    6.500000E+00
     TEMPORAL STATISTIC: TIME AVERAGE
   5 ID: VIS_ALARM_4
     QUANTITY: VISIBILITY
     Species ID: SOOT
     Coordinates (X,Y,Z):    7.000000E+00    5.500000E+00    6.500000E+00
     TEMPORAL STATISTIC: TIME AVERAGE


 Slice File Information, Mesh     1

   1 Nodes:   0  42   0  38   4   4, Quantity: TEMPERATURE
   2 Nodes:  28  28   0  38   0  22, Quantity: VELOCITY


 Radiation Model Information

   Number of control angles  104
   Time step increment         3
   Angle increment             5
   Theta band N_phi   Solid angle
     1:        4     0.120
     2:       12     0.114
     3:       16     0.127
     4:       20     0.120
     5:       20     0.120
     6:       16     0.127
     7:       12     0.114
     8:        4     0.120
   Using gray gas absorption.
   Mean beam length  1.000E-01 m


 Pressure Zone Information

   1 Volume: 1.2484E+03 m³, Cells: 9987, Mesh: 1, Indices: (36,34,16)
   2 Volume: 1.1812E+02 m³, Cells: 945, Mesh: 1, Indices: (18,8,16)
   3 Volume: 7.9625E+01 m³, Cells: 637, Mesh: 1, Indices: (36,14,8)
   4 Volume: 1.4700E+02 m³, Cells: 1176, Mesh: 1, Indices: (22,34,8)
   5 Volume: 7.9625E+01 m³, Cells: 637, Mesh: 1, Indices: (36,14,16)
   6 Volume: 5.7750E+01 m³, Cells: 462, Mesh: 1, Indices: (12,25,16)
   7 Volume: 1.4700E+02 m³, Cells: 1176, Mesh: 1, Indices: (22,34,16)
 
 

 Run Time Diagnostics

       Time Step       1   January 23, 2026  14:57:43
       Step Size:    0.241E+00 s, Total Time:       0.24 s
       Pressure Iterations: 1
       Maximum Velocity Error:  0.18E-01 on Mesh 1 at (37,1,2)
       Maximum Pressure Error:  0.85E-04 on Mesh 1 at (37,35,1)
       ---------------------------------------------------------------
       Max CFL number:  0.32E-01 at (42,38,22)
       Max divergence:  0.46E-05 at (42,38,22)
       Min divergence: -0.37E-04 at (34,17,2)
       Max VN number:   0.19E-01 at (38,28,14)
 
       Time Step       2   January 23, 2026  14:57:43
       Step Size:    0.241E+00 s, Total Time:       0.48 s
       Pressure Iterations: 1
       Maximum Velocity Error:  0.28E-01 on Mesh 1 at (3,34,10)
       Maximum Pressure Error:  0.74E-04 on Mesh 1 at (36,17,2)
       ---------------------------------------------------------------
       Max CFL number:  0.63E-01 at (42,38,22)
       Max divergence:  0.62E-01 at (36,17,2)
       Min divergence: -0.20E-04 at (7,10,7)
       Max VN number:   0.14E-01 at (42,12,15)
       Total Heat Release Rate:              8.261 kW
 
       Time Step       3   January 23, 2026  14:57:43
       Step Size:    0.241E+00 s, Total Time:       0.72 s
       Pressure Iterations: 1
       Maximum Velocity Error:  0.35E-01 on Mesh 1 at (2,34,10)
       Maximum Pressure Error:  0.85E-02 on Mesh 1 at (36,17,2)
       ---------------------------------------------------------------
       Max CFL number:  0.91E-01 at (42,38,22)
       Max divergence:  0.11E+00 at (36,17,2)
       Min divergence: -0.33E-04 at (7,10,7)
       Max VN number:   0.31E-01 at (38,6,17)
       Total Heat Release Rate:             13.761 kW
       Radiation Loss to Boundaries:        -0.005 kW
 
       Time Step       4   January 23, 2026  14:57:43
       Step Size:    0.241E+00 s, Total Time:       0.96 s
       Pressure Iterations: 1
       Maximum Velocity Error:  0.33E-01 on Mesh 1 at (2,34,10)
       Maximum Pressure Error:  0.15E-01 on Mesh 1 at (36,17,2)
       ---------------------------------------------------------------
       Max CFL number:  0.11E+00 at (42,38,22)
       Max divergence:  0.15E+00 at (36,17,2)
       Min divergence: -0.70E-04 at (12,24,7)
       Max VN number:   0.55E-01 at (38,6,17)
       Total Heat Release Rate:             31.907 kW
       Radiation Loss to Boundaries:        -1.690 kW
 
       Time Step       5   January 23, 2026  14:57:43
       Step Size:    0.241E+00 s, Total Time:       1.20 s
       Pressure Iterations: 1
       Maximum Velocity Error:  0.31E-01 on Mesh 1 at (24,34,2)
       Maximum Pressure Error:  0.20E+00 on Mesh 1 at (36,17,2)
       ---------------------------------------------------------------
       Max CFL number:  0.15E+00 at (2,36,18)
       Max divergence:  0.17E+00 at (36,17,2)
       Min divergence: -0.64E-04 at (12,24,7)
       Max VN number:   0.72E-01 at (38,6,17)
       Total Heat Release Rate:             31.216 kW
       Radiation Loss to Boundaries:        -4.012 kW
 
       Time Step       6   January 23, 2026  14:57:44
       Step Size:    0.241E+00 s, Total Time:       1.44 s
       Pressure Iterations: 1
       Maximum Velocity Error:  0.29E-01 on Mesh 1 at (24,34,2)
       Maximum Pressure Error:  0.25E+00 on Mesh 1 at (36,17,2)
       ---------------------------------------------------------------
       Max CFL number:  0.19E+00 at (2,36,18)
       Max divergence:  0.23E+00 at (35,17,2)
       Min divergence: -0.13E-03 at (12,24,7)
       Max VN number:   0.86E-01 at (38,10,17)
       Total Heat Release Rate:             70.220 kW
       Radiation Loss to Boundaries:       -14.835 kW
 
       Time Step       7   January 23, 2026  14:57:44
       Step Size:    0.241E+00 s, Total Time:       1.68 s
       Pressure Iterations: 1
       Maximum Velocity Error:  0.22E-01 on Mesh 1 at (23,34,2)
       Maximum Pressure Error:  0.75E+00 on Mesh 1 at (36,17,2)
       ---------------------------------------------------------------
       Max CFL number:  0.22E+00 at (2,36,18)
       Max divergence:  0.11E+00 at (34,17,2)
       Min divergence: -0.78E-04 at (12,24,7)
       Max VN number:   0.10E+00 at (38,10,17)
       Total Heat Release Rate:             45.802 kW
       Radiation Loss to Boundaries:       -12.127 kW
 
       Time Step       8   January 23, 2026  14:57:44
       Step Size:    0.241E+00 s, Total Time:       1.93 s
       Pressure Iterations: 1
       Maximum Velocity Error:  0.29E-01 on Mesh 1 at (36,2,10)
       Maximum Pressure Error:  0.46E+00 on Mesh 1 at (36,17,2)
       ---------------------------------------------------------------
       Max CFL number:  0.25E+00 at (2,36,18)
       Max divergence:  0.23E+00 at (29,17,2)
       Min divergence: -0.14E-03 at (36,33,15)
       Max VN number:   0.11E+00 at (38,10,17)
       Total Heat Release Rate:             80.615 kW
       Radiation Loss to Boundaries:       -19.975 kW
 
       Time Step       9   January 23, 2026  14:57:44
       Step Size:    0.241E+00 s, Total Time:       2.17 s
       Pressure Iterations: 1
       Maximum Velocity Error:  0.34E-01 on Mesh 1 at (36,2,10)
       Maximum Pressure Error:  0.77E+00 on Mesh 1 at (29,17,2)
       ---------------------------------------------------------------
       Max CFL number:  0.28E+00 at (2,36,18)
       Max divergence:  0.10E+00 at (34,17,2)
       Min divergence: -0.94E-04 at (31,34,15)
       Max VN number:   0.11E+00 at (38,10,17)
       Total Heat Release Rate:             62.785 kW
       Radiation Loss to Boundaries:       -22.522 kW
 
       Time Step      10   January 23, 2026  14:57:44
       Step Size:    0.241E+00 s, Total Time:       2.41 s
       Pressure Iterations: 1
       Maximum Velocity Error:  0.34E-01 on Mesh 1 at (2,34,10)
       Maximum Pressure Error:  0.20E+00 on Mesh 1 at (36,17,2)
       ---------------------------------------------------------------
       Max CFL number:  0.31E+00 at (36,17,2)
       Max divergence:  0.16E+00 at (32,17,2)
       Min divergence: -0.13E-03 at (36,33,15)
       Max VN number:   0.96E-01 at (38,10,17)
       Total Heat Release Rate:             75.832 kW
       Radiation Loss to Boundaries:       -18.919 kW
 
       Time Step      20   January 23, 2026  14:57:46
       Step Size:    0.241E+00 s, Total Time:       4.81 s
       Pressure Iterations: 1
       Maximum Velocity Error:  0.55E-01 on Mesh 1 at (36,17,7)
       Maximum Pressure Error:  0.25E+00 on Mesh 1 at (36,17,6)
       ---------------------------------------------------------------
       Max CFL number:  0.96E+00 at (36,17,5)
       Max divergence:  0.18E+00 at (36,17,2)
       Min divergence: -0.18E-01 at (35,17,5)
       Max VN number:   0.62E+00 at (36,18,4)
       Total Heat Release Rate:            114.297 kW
       Radiation Loss to Boundaries:       -14.121 kW
 
       Time Step      30   January 23, 2026  14:57:48
       Step Size:    0.194E+00 s, Total Time:       6.80 s
       Pressure Iterations: 1
       Maximum Velocity Error:  0.96E-01 on Mesh 1 at (33,17,8)
       Maximum Pressure Error:  0.25E+00 on Mesh 1 at (32,17,8)
       ---------------------------------------------------------------
       Max CFL number:  0.96E+00 at (33,17,7)
       Max divergence:  0.20E+00 at (29,17,2)
       Min divergence: -0.23E-01 at (32,17,7)
       Max VN number:   0.87E+00 at (36,19,7)
       Total Heat Release Rate:            158.054 kW
       Radiation Loss to Boundaries:       -28.516 kW
 
       Time Step      40   January 23, 2026  14:57:50
       Step Size:    0.166E+00 s, Total Time:       8.71 s
       Pressure Iterations: 1
       Maximum Velocity Error:  0.54E-01 on Mesh 1 at (36,15,7)
       Maximum Pressure Error:  0.47E+00 on Mesh 1 at (36,16,6)
       ---------------------------------------------------------------
       Max CFL number:  0.88E+00 at (36,16,6)
       Max divergence:  0.32E+00 at (36,17,2)
       Min divergence: -0.37E-01 at (36,16,6)
       Max VN number:   0.84E+00 at (29,16,6)
       Total Heat Release Rate:            234.698 kW
       Radiation Loss to Boundaries:       -45.469 kW
 
       Time Step      50   January 23, 2026  14:57:51
       Step Size:    0.114E+00 s, Total Time:      10.16 s
       Pressure Iterations: 1
       Maximum Velocity Error:  0.47E-01 on Mesh 1 at (32,16,8)
       Maximum Pressure Error:  0.35E+00 on Mesh 1 at (32,16,8)
       ---------------------------------------------------------------
       Max CFL number:  0.68E+00 at (33,16,5)
       Max divergence:  0.36E+00 at (33,17,2)
       Min divergence: -0.86E-01 at (36,17,5)
       Max VN number:   0.90E+00 at (35,16,7)
       Total Heat Release Rate:            254.266 kW
       Radiation Loss to Boundaries:       -49.517 kW
 
       Time Step      60   January 23, 2026  14:57:53
       Step Size:    0.125E+00 s, Total Time:      11.33 s
       Pressure Iterations: 1
       Maximum Velocity Error:  0.67E-01 on Mesh 1 at (32,15,5)
       Maximum Pressure Error:  0.38E+00 on Mesh 1 at (33,16,5)
       ---------------------------------------------------------------
       Max CFL number:  0.89E+00 at (33,16,4)
       Max divergence:  0.46E+00 at (36,17,2)
       Min divergence: -0.43E-01 at (34,20,8)
       Max VN number:   0.91E+00 at (36,17,6)
       Total Heat Release Rate:            285.081 kW
       Radiation Loss to Boundaries:       -66.744 kW
 
       Time Step      70   January 23, 2026  14:57:55
       Step Size:    0.112E+00 s, Total Time:      12.50 s
       Pressure Iterations: 1
       Maximum Velocity Error:  0.40E-01 on Mesh 1 at (36,21,12)
       Maximum Pressure Error:  0.63E+00 on Mesh 1 at (36,16,7)
       ---------------------------------------------------------------
       Max CFL number:  0.85E+00 at (35,20,8)
       Max divergence:  0.43E+00 at (33,17,2)
       Min divergence: -0.51E-01 at (35,19,8)
       Max VN number:   0.65E+00 at (36,17,3)
       Total Heat Release Rate:            308.002 kW
       Radiation Loss to Boundaries:       -63.119 kW
 
       Time Step      80   January 23, 2026  14:57:57
       Step Size:    0.123E+00 s, Total Time:      13.69 s
       Pressure Iterations: 1
       Maximum Velocity Error:  0.87E-01 on Mesh 1 at (34,15,8)
       Maximum Pressure Error:  0.10E+01 on Mesh 1 at (34,16,8)
       ---------------------------------------------------------------
       Max CFL number:  0.85E+00 at (35,19,8)
       Max divergence:  0.47E+00 at (34,17,2)
       Min divergence: -0.72E-01 at (35,19,8)
       Max VN number:   0.93E+00 at (36,20,14)
       Total Heat Release Rate:            333.000 kW
       Radiation Loss to Boundaries:       -69.744 kW
 
       Time Step      90   January 23, 2026  14:57:58
       Step Size:    0.123E+00 s, Total Time:      14.93 s
       Pressure Iterations: 1
       Maximum Velocity Error:  0.95E-01 on Mesh 1 at (33,26,16)
       Maximum Pressure Error:  0.49E+00 on Mesh 1 at (36,16,8)
       ---------------------------------------------------------------
       Max CFL number:  0.89E+00 at (36,24,11)
       Max divergence:  0.48E+00 at (33,17,2)
       Min divergence: -0.50E-01 at (31,17,4)
       Max VN number:   0.68E+00 at (31,16,7)
       Total Heat Release Rate:            378.178 kW
       Radiation Loss to Boundaries:       -89.717 kW
 
       Time Step     100   January 23, 2026  14:58:00
       Step Size:    0.123E+00 s, Total Time:      16.16 s
       Pressure Iterations: 1
       Maximum Velocity Error:  0.98E-01 on Mesh 1 at (36,28,16)
       Maximum Pressure Error:  0.56E+00 on Mesh 1 at (35,16,8)
       ---------------------------------------------------------------
       Max CFL number:  0.92E+00 at (36,27,14)
       Max divergence:  0.51E+00 at (35,17,2)
       Min divergence: -0.75E-01 at (35,19,8)
       Max VN number:   0.98E+00 at (31,16,7)
       Total Heat Release Rate:            405.770 kW
       Radiation Loss to Boundaries:       -88.445 kW
 
       Time Step     200   January 23, 2026  14:58:17
       Step Size:    0.100E+00 s, Total Time:      26.24 s
       Pressure Iterations: 1
       Maximum Velocity Error:  0.87E-01 on Mesh 1 at (36,28,16)
       Maximum Pressure Error:  0.48E+00 on Mesh 1 at (36,28,16)
       ---------------------------------------------------------------
       Max CFL number:  0.86E+00 at (36,20,8)
       Max divergence:  0.82E+00 at (34,17,2)
       Min divergence: -0.74E-01 at (35,19,8)
       Max VN number:   0.93E+00 at (36,17,6)
       Total Heat Release Rate:            653.804 kW
       Radiation Loss to Boundaries:      -155.045 kW
 
       Time Step     300   January 23, 2026  14:58:35
       Step Size:    0.867E-01 s, Total Time:      35.48 s
       Pressure Iterations: 1
       Maximum Velocity Error:  0.45E-01 on Mesh 1 at (36,25,14)
       Maximum Pressure Error:  0.11E+01 on Mesh 1 at (32,17,2)
       ---------------------------------------------------------------
       Max CFL number:  0.89E+00 at (36,19,8)
       Max divergence:  0.11E+01 at (33,17,2)
       Min divergence: -0.15E+00 at (32,16,5)
       Max VN number:   0.73E+00 at (36,21,15)
       Total Heat Release Rate:            923.371 kW
       Radiation Loss to Boundaries:      -229.125 kW
 
       Time Step     400   January 23, 2026  14:58:52
       Step Size:    0.752E-01 s, Total Time:      43.55 s
       Pressure Iterations: 1
       Maximum Velocity Error:  0.49E-01 on Mesh 1 at (31,34,16)
       Maximum Pressure Error:  0.19E+01 on Mesh 1 at (36,17,2)
       ---------------------------------------------------------------
       Max CFL number:  0.86E+00 at (36,20,8)
       Max divergence:  0.13E+01 at (35,17,2)
       Min divergence: -0.23E+00 at (34,16,5)
       Max VN number:   0.83E+00 at (36,22,15)
       Total Heat Release Rate:           1088.879 kW
       Radiation Loss to Boundaries:      -277.937 kW
 
       Time Step     500   January 23, 2026  14:59:10
       Step Size:    0.797E-01 s, Total Time:      50.94 s
       Pressure Iterations: 1
       Maximum Velocity Error:  0.64E-01 on Mesh 1 at (34,34,16)
       Maximum Pressure Error:  0.25E+01 on Mesh 1 at (30,17,2)
       ---------------------------------------------------------------
       Max CFL number:  0.85E+00 at (34,19,8)
       Max divergence:  0.15E+01 at (33,17,2)
       Min divergence: -0.19E+00 at (33,16,6)
       Max VN number:   0.57E+00 at (36,17,15)
       Total Heat Release Rate:           1274.877 kW
       Radiation Loss to Boundaries:      -326.045 kW
 
       Time Step     600   January 23, 2026  14:59:27
       Step Size:    0.698E-01 s, Total Time:      58.52 s
       Pressure Iterations: 1
       Maximum Velocity Error:  0.11E+00 on Mesh 1 at (33,16,8)
       Maximum Pressure Error:  0.50E+01 on Mesh 1 at (33,16,8)
       ---------------------------------------------------------------
       Max CFL number:  0.85E+00 at (36,19,8)
       Max divergence:  0.17E+01 at (32,17,2)
       Min divergence: -0.26E+00 at (34,17,6)
       Max VN number:   0.63E+00 at (36,32,14)
       Total Heat Release Rate:           1487.444 kW
       Radiation Loss to Boundaries:      -397.075 kW
 
       Time Step     700   January 23, 2026  14:59:46
       Step Size:    0.678E-01 s, Total Time:      65.45 s
       Pressure Iterations: 1
       Maximum Velocity Error:  0.16E+00 on Mesh 1 at (32,16,8)
       Maximum Pressure Error:  0.11E+02 on Mesh 1 at (32,16,8)
       ---------------------------------------------------------------
       Max CFL number:  0.84E+00 at (35,19,8)
       Max divergence:  0.17E+01 at (33,17,2)
       Min divergence: -0.33E+00 at (35,19,8)
       Max VN number:   0.65E+00 at (36,31,15)
       Total Heat Release Rate:           1644.599 kW
       Radiation Loss to Boundaries:      -458.891 kW
 
       Time Step     800   January 23, 2026  15:00:03
       Step Size:    0.669E-01 s, Total Time:      72.10 s
       Pressure Iterations: 1
       Maximum Velocity Error:  0.79E-01 on Mesh 1 at (35,16,8)
       Maximum Pressure Error:  0.43E+01 on Mesh 1 at (35,16,8)
       ---------------------------------------------------------------
       Max CFL number:  0.85E+00 at (36,20,8)
       Max divergence:  0.18E+01 at (30,17,2)
       Min divergence: -0.22E+00 at (34,16,4)
       Max VN number:   0.79E+00 at (33,16,7)
       Total Heat Release Rate:           1752.832 kW
       Radiation Loss to Boundaries:      -522.711 kW
 
       Time Step     900   January 23, 2026  15:00:22
       Step Size:    0.561E-01 s, Total Time:      78.39 s
       Pressure Iterations: 1
       Maximum Velocity Error:  0.15E+00 on Mesh 1 at (32,15,8)
       Maximum Pressure Error:  0.12E+02 on Mesh 1 at (36,16,8)
       ---------------------------------------------------------------
       Max CFL number:  0.89E+00 at (32,16,8)
       Max divergence:  0.17E+01 at (35,17,2)
       Min divergence: -0.39E+00 at (30,16,8)
       Max VN number:   0.66E+00 at (30,16,7)
       Total Heat Release Rate:           1952.200 kW
       Radiation Loss to Boundaries:      -588.840 kW
 
       Time Step    1000   January 23, 2026  15:00:40
       Step Size:    0.600E-01 s, Total Time:      84.47 s
       Pressure Iterations: 1
       Maximum Velocity Error:  0.57E-01 on Mesh 1 at (36,20,8)
       Maximum Pressure Error:  0.23E+01 on Mesh 1 at (32,16,8)
       ---------------------------------------------------------------
       Max CFL number:  0.79E+00 at (35,19,8)
       Max divergence:  0.21E+01 at (33,17,2)
       Min divergence: -0.34E+00 at (34,16,7)
       Max VN number:   0.61E+00 at (35,16,7)
       Total Heat Release Rate:           2126.684 kW
       Radiation Loss to Boundaries:      -665.556 kW
 
       Time Step    1100   January 23, 2026  15:01:03
       Step Size:    0.569E-01 s, Total Time:      90.68 s
       Pressure Iterations: 1
       Maximum Velocity Error:  0.78E-01 on Mesh 1 at (36,22,8)
       Maximum Pressure Error:  0.47E+01 on Mesh 1 at (33,16,2)
       ---------------------------------------------------------------
       Max CFL number:  0.83E+00 at (36,20,8)
       Max divergence:  0.20E+01 at (36,17,2)
       Min divergence: -0.28E+00 at (33,16,4)
       Max VN number:   0.60E+00 at (36,20,15)
       Total Heat Release Rate:           2197.500 kW
       Radiation Loss to Boundaries:      -737.113 kW
 
       Time Step    1200   January 23, 2026  15:01:23
       Step Size:    0.535E-01 s, Total Time:      96.52 s
       Pressure Iterations: 1
       Maximum Velocity Error:  0.15E+00 on Mesh 1 at (36,18,8)
       Maximum Pressure Error:  0.42E+01 on Mesh 1 at (36,17,7)
       ---------------------------------------------------------------
       Max CFL number:  0.80E+00 at (34,19,8)
       Max divergence:  0.23E+01 at (33,17,2)
       Min divergence: -0.50E+00 at (34,19,8)
       Max VN number:   0.58E+00 at (36,31,14)
       Total Heat Release Rate:           2261.242 kW
       Radiation Loss to Boundaries:      -778.779 kW
 
       Time Step    1258   January 23, 2026  15:01:35
       Step Size:    0.169E-01 s, Total Time:     100.00 s
       Pressure Iterations: 1
       Maximum Velocity Error:  0.50E-01 on Mesh 1 at (33,17,1)
       Maximum Pressure Error:  0.55E+02 on Mesh 1 at (36,16,2)
       ---------------------------------------------------------------
       Max CFL number:  0.23E+00 at (36,20,8)
       Max divergence:  0.27E+01 at (33,17,2)
       Min divergence: -0.29E+00 at (33,17,6)
       Max VN number:   0.16E+00 at (36,20,11)
       Total Heat Release Rate:           2372.192 kW
       Radiation Loss to Boundaries:      -781.700 kW
 


 Time Stepping Wall Clock Time (s):      232.704
 Total Elapsed Wall Clock Time (s):      236.110

STOP: FDS completed successfully (CHID: A1_Enzo)
