
 Fire Dynamics Simulator

 Current Date     : January 28, 2026  11:12:27
 Revision         : FDS-6.8.0-0-g886e009-release
 Revision Date    : Tue Apr 18 07:06:40 2023 -0400
 Compiler         : Intel ifort 2021.7.0
 Compilation Date : Tue 04/18/2023  03:22 PM

 MPI Enabled;    Number of MPI Processes:       1
 OpenMP Disabled

 MPI version: 3.1
 MPI library version: Intel(R) MPI Library 2021.6 for Windows* OS


 Job TITLE        : Formative Assignment 1 – Atrium Spill Plume, Medium / Fast t2 Fire
 Job ID string    : A1_Enzo


 Grid Dimensions, Mesh     1

   Cells in the X Direction            42
   Cells in the Y Direction            38
   Cells in the Z Direction            22
   Number of Grid Cells             35112


 Physical Dimensions, Mesh     1

   Length (m)                      21.000
   Width  (m)                      19.000
   Height (m)                      11.000
   Initial Time Step (s)            0.241

 Total Number of Grid Cells         35112


 Maximum Cell Aspect Ratio          1.000
 CFL Velocity Norm                      2


 Miscellaneous Parameters

   Simulation Start Time (s)          0.0
   Simulation End Time (s)          300.0
   Background Pressure (Pa)     101325.00
   Ambient Temperature (C)          20.00

   3D Cartesian
   VLES Calculation
   Eddy Viscosity Model:  Deardorff (C_DEARDORFF = 0.10)
   Surface INERT Eddy Viscosity Model:  WALE (C_WALE = 0.60)
   Surface FIRE Eddy Viscosity Model:  WALE (C_WALE = 0.60)
   Surface LEAK Eddy Viscosity Model:  WALE (C_WALE = 0.60)
   Turbulent Prandtl Number:         0.50
   Turbulent Schmidt Number:         0.50


 Pressure solver information

   Solver:                            FFT
   Velocity tolerance (m/s):    2.500E-01
   Press eqn res tol (1/s^2):   8.000E+01
   Max pressure iterations:            10


 Background Stratification

      Z (m)     P_0 (Pa)    TMP_0 (C)
   ------------------------------------
       10.75    101199.06     20.00
       10.25    101204.90     20.00
        9.75    101210.75     20.00
        9.25    101216.60     20.00
        8.75    101222.47     20.00
        8.25    101228.32     20.00
        7.75    101234.17     20.00
        7.25    101240.04     20.00
        6.75    101245.89     20.00
        6.25    101251.74     20.00
        5.75    101257.59     20.00
        5.25    101263.46     20.00
        4.75    101269.32     20.00
        4.25    101275.17     20.00
        3.75    101281.02     20.00
        3.25    101286.89     20.00
        2.75    101292.75     20.00
        2.25    101298.60     20.00
        1.75    101304.48     20.00
        1.25    101310.33     20.00
        0.75    101316.18     20.00
        0.25    101322.03     20.00


 Mass Fraction Transformation Matrix to Convert Species Mixtures (Columns) to Primitive Species (Rows)

                         AIR       PROPANE   PRODUCTS
   NITROGEN              0.762470  0.000000  0.716194
   OXYGEN                0.230997  0.000000  0.000000
   CARBON DIOXIDE        0.000591  0.000000  0.177828
   WATER VAPOR           0.005941  0.000000  0.104764
   CARBON MONOXIDE       0.000000  0.000000  0.000000
   SOOT                  0.000000  0.000000  0.001214
   HYDROGEN              0.000000  0.000000  0.000000
   HYDROGEN CYANIDE      0.000000  0.000000  0.000000
   PROPANE               0.000000  1.000000  0.000000


 Primitive Species Information

   NITROGEN
   Gas Species
   Molecular Weight (g/mol)                28.01340
   Ambient Density (kg/m^3)                1.165
           Enthalpy of Formation (J/kg)  0.000E+00

   OXYGEN
   Gas Species
   Molecular Weight (g/mol)                31.99880
   Ambient Density (kg/m^3)                1.330
           Enthalpy of Formation (J/kg)  0.000E+00

   CARBON DIOXIDE
   Gas Species
   Molecular Weight (g/mol)                44.00950
   Ambient Density (kg/m^3)                1.830
           Enthalpy of Formation (J/kg) -8.941E+06

   WATER VAPOR
   Gas Species
   Molecular Weight (g/mol)                18.01528
   Ambient Density (kg/m^3)                0.749
           Enthalpy of Formation (J/kg) -1.342E+07

   CARBON MONOXIDE
   Gas Species
   Molecular Weight (g/mol)                28.01010
   Ambient Density (kg/m^3)                1.164
           Enthalpy of Formation (J/kg) -3.946E+06

   SOOT
   Gas Species
   Molecular Weight (g/mol)                12.01070
   Ambient Density (kg/m^3)                0.499
           Enthalpy of Formation (J/kg)  0.000E+00

   HYDROGEN
   Gas Species
   Molecular Weight (g/mol)                 2.01588
   Ambient Density (kg/m^3)                0.084
           Enthalpy of Formation (J/kg)  0.000E+00

   HYDROGEN CYANIDE
   Gas Species
   Molecular Weight (g/mol)                27.02534
   Ambient Density (kg/m^3)                1.123
           Enthalpy of Formation (J/kg)  4.924E+06

   PROPANE
   Gas Species
   Molecular Weight (g/mol)                44.09562
   Ambient Density (kg/m^3)                1.833
           Enthalpy of Formation (J/kg) -2.374E+06


 Tracked (Lumped) Species Information

   AIR
   Molecular Weight (g/mol)            28.75198
   Ambient Density (kg/m^3)            1.195
   Initial Mass Fraction               1.000
   Enthalpy of Formation (J/kg)     -8.504E+04

   Sub Species                    Mass Fraction     Mole Fraction
   NITROGEN                       7.624699E-01      7.825727E-01
   OXYGEN                         2.309974E-01      2.075588E-01
   CARBON DIOXIDE                 5.914650E-04      3.864118E-04
   WATER VAPOR                    5.941209E-03      9.482037E-03
 
     Viscosity (kg/m/s) Ambient,  293 K:  1.796E-05
                                  500 K:  2.612E-05
                                 1000 K:  4.125E-05
                                 1500 K:  5.371E-05
                                 2000 K:  6.476E-05
   Therm. Cond. (W/m/K) Ambient,  293 K:  2.556E-02
                                  500 K:  3.814E-02
                                 1000 K:  6.686E-02
                                 1500 K:  9.249E-02
                                 2000 K:  1.153E-01
        Enthalpy (J/kg) Ambient,  293 K: -9.012E+04
                                  500 K:  1.222E+05
                                 1000 K:  6.721E+05
                                 1500 K:  1.270E+06
                                 2000 K:  1.896E+06
    Spec. Heat (J/kg/K) Ambient,  293 K:  1.016E+03
                                  500 K:  1.042E+03
                                 1000 K:  1.156E+03
                                 1500 K:  1.229E+03
                                 2000 K:  1.270E+03
   Diff. Coeff. (m^2/s) Ambient,  293 K:  1.991E-05
                                  500 K:  4.961E-05
                                 1000 K:  1.580E-04
                                 1500 K:  3.095E-04
                                 2000 K:  4.984E-04
 Gibbs Energy Amb. (kJ/mol),  293 K: -5.873E+01
                                  500 K: -1.007E+02
                                 1000 K: -2.117E+02
                                 1500 K: -3.312E+02
                                 2000 K: -4.568E+02

   PROPANE
   Molecular Weight (g/mol)            44.09562
   Ambient Density (kg/m^3)            1.833
   Initial Mass Fraction               0.000
   Enthalpy of Formation (J/kg)     -2.374E+06

   Sub Species                    Mass Fraction     Mole Fraction
   PROPANE                        1.000000E+00      1.000000E+00
 
     Viscosity (kg/m/s) Ambient,  293 K:  8.079E-06
                                  500 K:  1.310E-05
                                 1000 K:  2.234E-05
                                 1500 K:  2.955E-05
                                 2000 K:  3.574E-05
   Therm. Cond. (W/m/K) Ambient,  293 K:  1.821E-02
                                  500 K:  4.581E-02
                                 1000 K:  1.212E-01
                                 1500 K:  1.890E-01
                                 2000 K:  2.465E-01
        Enthalpy (J/kg) Ambient,  293 K: -2.382E+06
                                  500 K: -1.946E+06
                                 1000 K: -2.769E+05
                                 1500 K:  1.900E+06
                                 2000 K:  4.336E+06
    Spec. Heat (J/kg/K) Ambient,  293 K:  1.646E+03
                                  500 K:  2.553E+03
                                 1000 K:  3.960E+03
                                 1500 K:  4.669E+03
                                 2000 K:  5.034E+03
   Diff. Coeff. (m^2/s) Ambient,  293 K:  1.110E-05
                                  500 K:  2.862E-05
                                 1000 K:  9.316E-05
                                 1500 K:  1.833E-04
                                 2000 K:  2.954E-04
 Gibbs Energy Amb. (kJ/mol),  293 K: -1.839E+02
                                  500 K: -2.447E+02
                                 1000 K: -4.295E+02
                                 1500 K: -6.584E+02
                                 2000 K: -9.217E+02

   PRODUCTS
   Molecular Weight (g/mol)            28.15067
   Ambient Density (kg/m^3)            1.170
   Initial Mass Fraction               0.000
   Enthalpy of Formation (J/kg)     -2.996E+06

   Sub Species                    Mass Fraction     Mole Fraction
   NITROGEN                       7.161941E-01      7.197034E-01
   CARBON DIOXIDE                 1.778284E-01      1.137479E-01
   WATER VAPOR                    1.047637E-01      1.637037E-01
   CARBON MONOXIDE                0.000000E+00      0.000000E+00
   SOOT                           1.213841E-03      2.845000E-03
   HYDROGEN CYANIDE               0.000000E+00      0.000000E+00
 
     Viscosity (kg/m/s) Ambient,  293 K:  1.612E-05
                                  500 K:  2.389E-05
                                 1000 K:  3.893E-05
                                 1500 K:  5.143E-05
                                 2000 K:  6.244E-05
   Therm. Cond. (W/m/K) Ambient,  293 K:  2.340E-02
                                  500 K:  3.617E-02
                                 1000 K:  6.711E-02
                                 1500 K:  9.629E-02
                                 2000 K:  1.225E-01
        Enthalpy (J/kg) Ambient,  293 K: -3.002E+06
                                  500 K: -2.771E+06
                                 1000 K: -2.160E+06
                                 1500 K: -1.482E+06
                                 2000 K: -7.633E+05
    Spec. Heat (J/kg/K) Ambient,  293 K:  1.090E+03
                                  500 K:  1.143E+03
                                 1000 K:  1.298E+03
                                 1500 K:  1.404E+03
                                 2000 K:  1.467E+03
   Diff. Coeff. (m^2/s) Ambient,  293 K:  1.952E-05
                                  500 K:  4.957E-05
                                 1000 K:  1.601E-04
                                 1500 K:  3.148E-04
                                 2000 K:  5.078E-04
 Gibbs Energy Amb. (kJ/mol),  293 K: -1.525E+02
                                  500 K: -1.946E+02
                                 1000 K: -3.070E+02
                                 1500 K: -4.290E+02
                                 2000 K: -5.578E+02


 Gas Phase Reaction Information

      Fuel                                           Heat of Combustion (kJ/kg)
      PROPANE                                                        45679.3589

      Primitive Species Stoich. Coeff.
      Species ID                                                          Molar
      NITROGEN                                                         0.000000
      OXYGEN                                                          -4.926573
      CARBON DIOXIDE                                                   2.926573
      WATER VAPOR                                                      4.000000
      SOOT                                                             0.073427
      PROPANE                                                         -1.000000

      Tracked (Lumped) Species Stoich. Coeff.
      Species ID                                             Molar         Mass
      AIR                                               -23.735791   -15.476618
      PROPANE                                            -1.000000    -1.000000
      PRODUCTS                                           25.809218    16.476618

      Reaction Kinetics

      Fast chemistry

      ODE Solver:  EXPLICIT EULER

      Extinction Model:  EXTINCTION 1
      Auto-Ignition Temperature (C):            -273.1
      Critical Flame Temperature (C):           1447.0

      Prescribed Radiative Fraction:             0.290


 Material Information


 Surface Conditions

   0 INERT (DEFAULT)

   1 FIRE
     HRR Per Unit Area (kW/m2)       1200.0
     PROPANE Mass Flux (kg/s/m2)   2.627E-02

   2 LEAK
     Normal Velocity (m/s)        -0.050
     AIR Mass Fraction         1.000

   3 OPEN
     Passive Vent to Atmosphere

   4 MIRROR
     Symmetry Plane

   5 INTERPOLATED

   6 PERIODIC

   7 HVAC

   8 MASSLESS TRACER

   9 DROPLET

  10 MASSLESS TARGET

  11 PERIODIC FLOW ONLY


 Lagrangian Particle Classes


 Cut-off Density and Temperature

    Minimum Temperature:  -259.1 C
    Maximum Temperature:  2726.8 C
    Minimum Density:  1.195E-01 kg/m3
    Maximum Density:  7.677E+01 kg/m3


 Device Information

   1 ID: DOOR_TEMP
     QUANTITY: TEMPERATURE
     Coordinates (X,Y,Z):    7.500000E+00    7.000000E+00    6.500000E+00
     TEMPORAL STATISTIC: TIME AVERAGE
   2 ID: DOOR_VIS
     QUANTITY: VISIBILITY
     Species ID: SOOT
     Coordinates (X,Y,Z):    7.500000E+00    7.000000E+00    6.500000E+00
     TEMPORAL STATISTIC: TIME AVERAGE
   3 ID: LAYER_HEIGHT_DOOR
     QUANTITY: LAYER HEIGHT
     Coordinates (X,Y,Z):    7.250000E+00    7.250000E+00    6.250000E+00
     TEMPORAL STATISTIC: TIME AVERAGE


 Slice File Information, Mesh     1

   1 Nodes:   0  42   0  38  13  13, Quantity: TEMPERATURE
   2 Nodes:   0  42   0  38  13  13, Quantity: SOOT VISIBILITY
   3 Nodes:  28  28   0  38   0  22, Quantity: VELOCITY


 Radiation Model Information

   Number of control angles  104
   Time step increment         3
   Angle increment             5
   Theta band N_phi   Solid angle
     1:        4     0.120
     2:       12     0.114
     3:       16     0.127
     4:       20     0.120
     5:       20     0.120
     6:       16     0.127
     7:       12     0.114
     8:        4     0.120
   Using gray gas absorption.
   Mean beam length  1.000E-01 m


 Pressure Zone Information

   1 Volume: 1.2484E+03 m³, Cells: 9987, Mesh: 1, Indices: (36,34,16)
   2 Volume: 1.1812E+02 m³, Cells: 945, Mesh: 1, Indices: (18,8,16)
   3 Volume: 7.9625E+01 m³, Cells: 637, Mesh: 1, Indices: (36,14,8)
   4 Volume: 1.4700E+02 m³, Cells: 1176, Mesh: 1, Indices: (22,34,8)
   5 Volume: 7.9625E+01 m³, Cells: 637, Mesh: 1, Indices: (36,14,16)
   6 Volume: 5.7750E+01 m³, Cells: 462, Mesh: 1, Indices: (12,25,16)
   7 Volume: 1.4700E+02 m³, Cells: 1176, Mesh: 1, Indices: (22,34,16)
 
 

 Run Time Diagnostics

       Time Step       1   January 28, 2026  11:12:28
       Step Size:    0.241E+00 s, Total Time:       0.24 s
       Pressure Iterations: 1
       Maximum Velocity Error:  0.18E-01 on Mesh 1 at (37,1,2)
       Maximum Pressure Error:  0.85E-04 on Mesh 1 at (37,35,1)
       ---------------------------------------------------------------
       Max CFL number:  0.32E-01 at (42,38,22)
       Max divergence:  0.46E-05 at (42,38,22)
       Min divergence: -0.23E-04 at (32,17,2)
       Max VN number:   0.19E-01 at (38,28,14)
 
       Time Step       2   January 28, 2026  11:12:29
       Step Size:    0.241E+00 s, Total Time:       0.48 s
       Pressure Iterations: 1
       Maximum Velocity Error:  0.28E-01 on Mesh 1 at (3,34,10)
       Maximum Pressure Error:  0.40E-04 on Mesh 1 at (36,17,2)
       ---------------------------------------------------------------
       Max CFL number:  0.63E-01 at (42,38,22)
       Max divergence:  0.38E-01 at (36,17,2)
       Min divergence: -0.13E-04 at (7,10,7)
       Max VN number:   0.14E-01 at (42,12,15)
       Total Heat Release Rate:              5.007 kW
 
       Time Step       3   January 28, 2026  11:12:30
       Step Size:    0.241E+00 s, Total Time:       0.72 s
       Pressure Iterations: 1
       Maximum Velocity Error:  0.35E-01 on Mesh 1 at (2,34,10)
       Maximum Pressure Error:  0.57E-02 on Mesh 1 at (36,17,2)
       ---------------------------------------------------------------
       Max CFL number:  0.91E-01 at (42,38,22)
       Max divergence:  0.91E-01 at (36,17,2)
       Min divergence: -0.25E-04 at (7,10,7)
       Max VN number:   0.31E-01 at (38,6,17)
       Total Heat Release Rate:             10.045 kW
       Radiation Loss to Boundaries:        -0.002 kW
 
       Time Step       4   January 28, 2026  11:12:31
       Step Size:    0.241E+00 s, Total Time:       0.96 s
       Pressure Iterations: 1
       Maximum Velocity Error:  0.33E-01 on Mesh 1 at (2,34,10)
       Maximum Pressure Error:  0.13E-01 on Mesh 1 at (36,17,2)
       ---------------------------------------------------------------
       Max CFL number:  0.11E+00 at (42,38,22)
       Max divergence:  0.13E+00 at (35,17,2)
       Min divergence: -0.49E-04 at (12,24,7)
       Max VN number:   0.55E-01 at (38,6,17)
       Total Heat Release Rate:             20.795 kW
       Radiation Loss to Boundaries:        -0.009 kW
 
       Time Step       5   January 28, 2026  11:12:31
       Step Size:    0.241E+00 s, Total Time:       1.20 s
       Pressure Iterations: 1
       Maximum Velocity Error:  0.31E-01 on Mesh 1 at (24,34,2)
       Maximum Pressure Error:  0.15E+00 on Mesh 1 at (36,17,2)
       ---------------------------------------------------------------
       Max CFL number:  0.15E+00 at (2,36,18)
       Max divergence:  0.13E+00 at (36,17,2)
       Min divergence: -0.51E-04 at (12,24,7)
       Max VN number:   0.72E-01 at (38,6,17)
       Total Heat Release Rate:             22.840 kW
       Radiation Loss to Boundaries:        -1.109 kW
 
       Time Step       6   January 28, 2026  11:12:32
       Step Size:    0.241E+00 s, Total Time:       1.44 s
       Pressure Iterations: 1
       Maximum Velocity Error:  0.29E-01 on Mesh 1 at (24,34,2)
       Maximum Pressure Error:  0.21E+00 on Mesh 1 at (36,17,2)
       ---------------------------------------------------------------
       Max CFL number:  0.19E+00 at (2,36,18)
       Max divergence:  0.19E+00 at (35,17,2)
       Min divergence: -0.86E-04 at (12,24,7)
       Max VN number:   0.86E-01 at (38,10,17)
       Total Heat Release Rate:             40.536 kW
       Radiation Loss to Boundaries:        -3.354 kW
 
       Time Step       7   January 28, 2026  11:12:33
       Step Size:    0.241E+00 s, Total Time:       1.68 s
       Pressure Iterations: 1
       Maximum Velocity Error:  0.22E-01 on Mesh 1 at (23,34,2)
       Maximum Pressure Error:  0.49E+00 on Mesh 1 at (36,17,2)
       ---------------------------------------------------------------
       Max CFL number:  0.22E+00 at (2,36,18)
       Max divergence:  0.93E-01 at (34,17,2)
       Min divergence: -0.68E-04 at (33,30,15)
       Max VN number:   0.10E+00 at (38,10,17)
       Total Heat Release Rate:             35.712 kW
       Radiation Loss to Boundaries:        -6.506 kW
 
       Time Step       8   January 28, 2026  11:12:33
       Step Size:    0.241E+00 s, Total Time:       1.93 s
       Pressure Iterations: 1
       Maximum Velocity Error:  0.29E-01 on Mesh 1 at (36,2,10)
       Maximum Pressure Error:  0.42E+00 on Mesh 1 at (36,17,2)
       ---------------------------------------------------------------
       Max CFL number:  0.25E+00 at (2,36,18)
       Max divergence:  0.11E+00 at (29,17,2)
       Min divergence: -0.81E-04 at (31,34,15)
       Max VN number:   0.11E+00 at (38,10,17)
       Total Heat Release Rate:             49.330 kW
       Radiation Loss to Boundaries:       -14.753 kW
 
       Time Step       9   January 28, 2026  11:12:34
       Step Size:    0.241E+00 s, Total Time:       2.17 s
       Pressure Iterations: 1
       Maximum Velocity Error:  0.34E-01 on Mesh 1 at (36,2,10)
       Maximum Pressure Error:  0.40E+00 on Mesh 1 at (36,17,2)
       ---------------------------------------------------------------
       Max CFL number:  0.28E+00 at (2,36,18)
       Max divergence:  0.83E-01 at (34,17,2)
       Min divergence: -0.69E-04 at (31,34,15)
       Max VN number:   0.11E+00 at (38,10,17)
       Total Heat Release Rate:             43.764 kW
       Radiation Loss to Boundaries:       -14.907 kW
 
       Time Step      10   January 28, 2026  11:12:35
       Step Size:    0.241E+00 s, Total Time:       2.41 s
       Pressure Iterations: 1
       Maximum Velocity Error:  0.34E-01 on Mesh 1 at (2,34,10)
       Maximum Pressure Error:  0.17E+00 on Mesh 1 at (36,17,2)
       ---------------------------------------------------------------
       Max CFL number:  0.29E+00 at (2,36,18)
       Max divergence:  0.93E-01 at (32,17,2)
       Min divergence: -0.85E-04 at (27,34,15)
       Max VN number:   0.96E-01 at (38,10,17)
       Total Heat Release Rate:             44.667 kW
       Radiation Loss to Boundaries:        -8.865 kW
 
       Time Step      20   January 28, 2026  11:12:41
       Step Size:    0.241E+00 s, Total Time:       4.81 s
       Pressure Iterations: 1
       Maximum Velocity Error:  0.39E-01 on Mesh 1 at (36,16,5)
       Maximum Pressure Error:  0.82E-01 on Mesh 1 at (36,17,6)
       ---------------------------------------------------------------
       Max CFL number:  0.72E+00 at (36,17,5)
       Max divergence:  0.10E+00 at (36,17,2)
       Min divergence: -0.13E-01 at (35,17,5)
       Max VN number:   0.60E+00 at (36,18,4)
       Total Heat Release Rate:             66.022 kW
       Radiation Loss to Boundaries:        -9.408 kW
 
       Time Step      30   January 28, 2026  11:12:48
       Step Size:    0.214E+00 s, Total Time:       7.09 s
       Pressure Iterations: 1
       Maximum Velocity Error:  0.68E-01 on Mesh 1 at (31,17,8)
       Maximum Pressure Error:  0.10E+00 on Mesh 1 at (32,17,7)
       ---------------------------------------------------------------
       Max CFL number:  0.85E+00 at (32,17,7)
       Max divergence:  0.12E+00 at (29,17,2)
       Min divergence: -0.17E-01 at (31,17,7)
       Max VN number:   0.82E+00 at (36,19,7)
       Total Heat Release Rate:            101.256 kW
       Radiation Loss to Boundaries:       -16.410 kW
 
       Time Step      40   January 28, 2026  11:12:54
       Step Size:    0.214E+00 s, Total Time:       9.23 s
       Pressure Iterations: 1
       Maximum Velocity Error:  0.52E-01 on Mesh 1 at (36,15,6)
       Maximum Pressure Error:  0.24E+00 on Mesh 1 at (36,16,5)
       ---------------------------------------------------------------
       Max CFL number:  0.87E+00 at (33,19,8)
       Max divergence:  0.18E+00 at (36,17,2)
       Min divergence: -0.13E-01 at (30,16,5)
       Max VN number:   0.89E+00 at (36,17,4)
       Total Heat Release Rate:            144.028 kW
       Radiation Loss to Boundaries:       -21.047 kW
 
       Time Step      50   January 28, 2026  11:13:01
       Step Size:    0.161E+00 s, Total Time:      11.02 s
       Pressure Iterations: 1
       Maximum Velocity Error:  0.99E-01 on Mesh 1 at (36,16,8)
       Maximum Pressure Error:  0.85E+00 on Mesh 1 at (36,16,8)
       ---------------------------------------------------------------
       Max CFL number:  0.87E+00 at (36,16,6)
       Max divergence:  0.24E+00 at (33,17,2)
       Min divergence: -0.34E-01 at (36,16,7)
       Max VN number:   0.67E+00 at (36,21,8)
       Total Heat Release Rate:            163.430 kW
       Radiation Loss to Boundaries:       -36.016 kW
 
       Time Step      60   January 28, 2026  11:13:08
       Step Size:    0.137E+00 s, Total Time:      12.58 s
       Pressure Iterations: 1
       Maximum Velocity Error:  0.54E-01 on Mesh 1 at (32,15,5)
       Maximum Pressure Error:  0.25E+00 on Mesh 1 at (33,16,5)
       ---------------------------------------------------------------
       Max CFL number:  0.87E+00 at (35,18,8)
       Max divergence:  0.29E+00 at (36,17,2)
       Min divergence: -0.33E-01 at (32,16,7)
       Max VN number:   0.91E+00 at (36,17,6)
       Total Heat Release Rate:            192.514 kW
       Radiation Loss to Boundaries:       -41.952 kW
 
       Time Step      70   January 28, 2026  11:13:15
       Step Size:    0.137E+00 s, Total Time:      13.95 s
       Pressure Iterations: 1
       Maximum Velocity Error:  0.49E-01 on Mesh 1 at (32,15,6)
       Maximum Pressure Error:  0.33E+00 on Mesh 1 at (36,16,7)
       ---------------------------------------------------------------
       Max CFL number:  0.89E+00 at (35,20,8)
       Max divergence:  0.29E+00 at (33,17,2)
       Min divergence: -0.33E-01 at (32,16,6)
       Max VN number:   0.67E+00 at (36,19,12)
       Total Heat Release Rate:            204.928 kW
       Radiation Loss to Boundaries:       -39.429 kW
 
       Time Step      80   January 28, 2026  11:13:21
       Step Size:    0.137E+00 s, Total Time:      15.32 s
       Pressure Iterations: 1
       Maximum Velocity Error:  0.79E-01 on Mesh 1 at (34,25,16)
       Maximum Pressure Error:  0.79E+00 on Mesh 1 at (34,16,8)
       ---------------------------------------------------------------
       Max CFL number:  0.84E+00 at (34,16,8)
       Max divergence:  0.34E+00 at (34,17,2)
       Min divergence: -0.55E-01 at (34,19,8)
       Max VN number:   0.86E+00 at (36,20,14)
       Total Heat Release Rate:            227.102 kW
       Radiation Loss to Boundaries:       -47.123 kW
 
       Time Step      90   January 28, 2026  11:13:27
       Step Size:    0.137E+00 s, Total Time:      16.70 s
       Pressure Iterations: 1
       Maximum Velocity Error:  0.84E-01 on Mesh 1 at (33,27,16)
       Maximum Pressure Error:  0.26E+00 on Mesh 1 at (36,16,8)
       ---------------------------------------------------------------
       Max CFL number:  0.84E+00 at (32,27,16)
       Max divergence:  0.32E+00 at (34,17,2)
       Min divergence: -0.41E-01 at (33,19,8)
       Max VN number:   0.75E+00 at (31,16,7)
       Total Heat Release Rate:            253.591 kW
       Radiation Loss to Boundaries:       -51.382 kW
 
       Time Step     100   January 28, 2026  11:13:34
       Step Size:    0.135E+00 s, Total Time:      18.15 s
       Pressure Iterations: 1
       Maximum Velocity Error:  0.81E-01 on Mesh 1 at (36,29,16)
       Maximum Pressure Error:  0.38E+00 on Mesh 1 at (35,16,8)
       ---------------------------------------------------------------
       Max CFL number:  0.86E+00 at (36,30,16)
       Max divergence:  0.35E+00 at (35,17,2)
       Min divergence: -0.49E-01 at (35,19,8)
       Max VN number:   0.79E+00 at (31,16,7)
       Total Heat Release Rate:            272.583 kW
       Radiation Loss to Boundaries:       -53.881 kW
 
       Time Step     200   January 28, 2026  11:14:39
       Step Size:    0.111E+00 s, Total Time:      29.68 s
       Pressure Iterations: 1
       Maximum Velocity Error:  0.42E-01 on Mesh 1 at (36,26,14)
       Maximum Pressure Error:  0.49E+00 on Mesh 1 at (35,16,8)
       ---------------------------------------------------------------
       Max CFL number:  0.88E+00 at (35,19,8)
       Max divergence:  0.58E+00 at (34,17,2)
       Min divergence: -0.78E-01 at (35,19,8)
       Max VN number:   0.97E+00 at (36,17,6)
       Total Heat Release Rate:            446.294 kW
       Radiation Loss to Boundaries:      -107.621 kW
 
       Time Step     300   January 28, 2026  11:15:45
       Step Size:    0.102E+00 s, Total Time:      39.91 s
       Pressure Iterations: 1
       Maximum Velocity Error:  0.65E-01 on Mesh 1 at (33,16,8)
       Maximum Pressure Error:  0.16E+01 on Mesh 1 at (33,16,8)
       ---------------------------------------------------------------
       Max CFL number:  0.88E+00 at (36,20,8)
       Max divergence:  0.75E+00 at (36,17,2)
       Min divergence: -0.84E-01 at (35,19,8)
       Max VN number:   0.82E+00 at (36,22,15)
       Total Heat Release Rate:            621.081 kW
       Radiation Loss to Boundaries:      -150.583 kW
 
       Time Step     400   January 28, 2026  11:16:52
       Step Size:    0.696E-01 s, Total Time:      49.29 s
       Pressure Iterations: 1
       Maximum Velocity Error:  0.29E-01 on Mesh 1 at (36,15,8)
       Maximum Pressure Error:  0.14E+01 on Mesh 1 at (36,16,8)
       ---------------------------------------------------------------
       Max CFL number:  0.69E+00 at (35,19,8)
       Max divergence:  0.84E+00 at (35,17,2)
       Min divergence: -0.11E+00 at (35,16,5)
       Max VN number:   0.85E+00 at (36,33,14)
       Total Heat Release Rate:            741.187 kW
       Radiation Loss to Boundaries:      -188.136 kW
 
       Time Step     500   January 28, 2026  11:17:56
       Step Size:    0.866E-01 s, Total Time:      57.90 s
       Pressure Iterations: 1
       Maximum Velocity Error:  0.49E-01 on Mesh 1 at (36,24,13)
       Maximum Pressure Error:  0.10E+01 on Mesh 1 at (32,17,2)
       ---------------------------------------------------------------
       Max CFL number:  0.84E+00 at (36,19,8)
       Max divergence:  0.10E+01 at (35,17,2)
       Min divergence: -0.26E+00 at (32,16,3)
       Max VN number:   0.71E+00 at (31,16,3)
       Total Heat Release Rate:            855.334 kW
       Radiation Loss to Boundaries:      -243.001 kW
 
       Time Step     600   January 28, 2026  11:19:00
       Step Size:    0.850E-01 s, Total Time:      66.36 s
       Pressure Iterations: 1
       Maximum Velocity Error:  0.85E-01 on Mesh 1 at (36,26,14)
       Maximum Pressure Error:  0.19E+01 on Mesh 1 at (33,16,8)
       ---------------------------------------------------------------
       Max CFL number:  0.78E+00 at (36,20,8)
       Max divergence:  0.16E+01 at (33,17,2)
       Min divergence: -0.18E+00 at (34,16,5)
       Max VN number:   0.72E+00 at (36,17,15)
       Total Heat Release Rate:           1002.268 kW
       Radiation Loss to Boundaries:      -284.092 kW
 
       Time Step     700   January 28, 2026  11:20:05
       Step Size:    0.572E-01 s, Total Time:      74.27 s
       Pressure Iterations: 1
       Maximum Velocity Error:  0.10E+00 on Mesh 1 at (36,20,8)
       Maximum Pressure Error:  0.66E+01 on Mesh 1 at (36,16,8)
       ---------------------------------------------------------------
       Max CFL number:  0.89E+00 at (36,20,8)
       Max divergence:  0.13E+01 at (30,17,2)
       Min divergence: -0.33E+00 at (30,16,4)
       Max VN number:   0.49E+00 at (33,16,7)
       Total Heat Release Rate:           1155.956 kW
       Radiation Loss to Boundaries:      -323.567 kW
 
       Time Step     800   January 28, 2026  11:21:11
       Step Size:    0.770E-01 s, Total Time:      81.77 s
       Pressure Iterations: 1
       Maximum Velocity Error:  0.10E+00 on Mesh 1 at (36,28,14)
       Maximum Pressure Error:  0.18E+01 on Mesh 1 at (34,16,8)
       ---------------------------------------------------------------
       Max CFL number:  0.87E+00 at (36,29,14)
       Max divergence:  0.13E+01 at (35,17,2)
       Min divergence: -0.35E+00 at (34,19,8)
       Max VN number:   0.71E+00 at (36,19,6)
       Total Heat Release Rate:           1195.270 kW
       Radiation Loss to Boundaries:      -372.217 kW
 
       Time Step     900   January 28, 2026  11:22:15
       Step Size:    0.743E-01 s, Total Time:      89.07 s
       Pressure Iterations: 1
       Maximum Velocity Error:  0.66E-01 on Mesh 1 at (35,16,8)
       Maximum Pressure Error:  0.23E+01 on Mesh 1 at (35,16,8)
       ---------------------------------------------------------------
       Max CFL number:  0.91E+00 at (36,20,8)
       Max divergence:  0.16E+01 at (36,17,2)
       Min divergence: -0.20E+00 at (34,16,7)
       Max VN number:   0.74E+00 at (36,17,6)
       Total Heat Release Rate:           1352.922 kW
       Radiation Loss to Boundaries:      -410.161 kW
 
       Time Step    1000   January 28, 2026  11:23:19
       Step Size:    0.597E-01 s, Total Time:      96.00 s
       Pressure Iterations: 1
       Maximum Velocity Error:  0.72E-01 on Mesh 1 at (36,19,8)
       Maximum Pressure Error:  0.38E+01 on Mesh 1 at (36,16,5)
       ---------------------------------------------------------------
       Max CFL number:  0.82E+00 at (35,19,8)
       Max divergence:  0.15E+01 at (30,17,2)
       Min divergence: -0.31E+00 at (34,16,7)
       Max VN number:   0.65E+00 at (33,16,7)
       Total Heat Release Rate:           1434.264 kW
       Radiation Loss to Boundaries:      -452.929 kW
 
       Time Step    1100   January 28, 2026  11:24:22
       Step Size:    0.706E-01 s, Total Time:     102.94 s
       Pressure Iterations: 1
       Maximum Velocity Error:  0.77E-01 on Mesh 1 at (36,23,10)
       Maximum Pressure Error:  0.43E+01 on Mesh 1 at (33,17,2)
       ---------------------------------------------------------------
       Max CFL number:  0.90E+00 at (36,19,8)
       Max divergence:  0.19E+01 at (33,17,2)
       Min divergence: -0.22E+00 at (33,18,4)
       Max VN number:   0.86E+00 at (36,17,6)
       Total Heat Release Rate:           1567.808 kW
       Radiation Loss to Boundaries:      -509.790 kW
 
       Time Step    1200   January 28, 2026  11:25:35
       Step Size:    0.595E-01 s, Total Time:     109.75 s
       Pressure Iterations: 1
       Maximum Velocity Error:  0.58E-01 on Mesh 1 at (36,24,8)
       Maximum Pressure Error:  0.25E+01 on Mesh 1 at (36,16,8)
       ---------------------------------------------------------------
       Max CFL number:  0.87E+00 at (36,21,8)
       Max divergence:  0.16E+01 at (36,17,2)
       Min divergence: -0.27E+00 at (35,19,8)
       Max VN number:   0.63E+00 at (36,20,9)
       Total Heat Release Rate:           1681.342 kW
       Radiation Loss to Boundaries:      -559.503 kW
 
       Time Step    1300   January 28, 2026  11:26:39
       Step Size:    0.690E-01 s, Total Time:     116.67 s
       Pressure Iterations: 1
       Maximum Velocity Error:  0.12E+00 on Mesh 1 at (36,24,16)
       Maximum Pressure Error:  0.38E+01 on Mesh 1 at (36,24,16)
       ---------------------------------------------------------------
       Max CFL number:  0.91E+00 at (36,20,8)
       Max divergence:  0.17E+01 at (33,17,2)
       Min divergence: -0.25E+00 at (36,16,5)
       Max VN number:   0.65E+00 at (36,33,14)
       Total Heat Release Rate:           1759.795 kW
       Radiation Loss to Boundaries:      -586.860 kW
 
       Time Step    1400   January 28, 2026  11:27:46
       Step Size:    0.666E-01 s, Total Time:     123.62 s
       Pressure Iterations: 1
       Maximum Velocity Error:  0.95E-01 on Mesh 1 at (34,15,5)
       Maximum Pressure Error:  0.57E+01 on Mesh 1 at (34,16,5)
       ---------------------------------------------------------------
       Max CFL number:  0.84E+00 at (35,19,8)
       Max divergence:  0.18E+01 at (35,17,2)
       Min divergence: -0.29E+00 at (34,16,5)
       Max VN number:   0.64E+00 at (31,16,3)
       Total Heat Release Rate:           1974.462 kW
       Radiation Loss to Boundaries:      -678.429 kW
 
       Time Step    1500   January 28, 2026  11:29:03
       Step Size:    0.624E-01 s, Total Time:     129.93 s
       Pressure Iterations: 1
       Maximum Velocity Error:  0.66E-01 on Mesh 1 at (36,21,8)
       Maximum Pressure Error:  0.28E+01 on Mesh 1 at (36,16,8)
       ---------------------------------------------------------------
       Max CFL number:  0.91E+00 at (36,19,8)
       Max divergence:  0.17E+01 at (34,17,2)
       Min divergence: -0.23E+00 at (34,16,5)
       Max VN number:   0.63E+00 at (36,17,6)
       Total Heat Release Rate:           1945.916 kW
       Radiation Loss to Boundaries:      -688.450 kW
 
       Time Step    1600   January 28, 2026  11:30:07
       Step Size:    0.666E-01 s, Total Time:     136.42 s
       Pressure Iterations: 1
       Maximum Velocity Error:  0.11E+00 on Mesh 1 at (34,15,8)
       Maximum Pressure Error:  0.79E+01 on Mesh 1 at (34,16,8)
       ---------------------------------------------------------------
       Max CFL number:  0.90E+00 at (35,19,8)
       Max divergence:  0.23E+01 at (35,17,2)
       Min divergence: -0.48E+00 at (34,16,7)
       Max VN number:   0.73E+00 at (32,16,7)
       Total Heat Release Rate:           2087.247 kW
       Radiation Loss to Boundaries:      -780.040 kW
 
       Time Step    1700   January 28, 2026  11:31:12
       Step Size:    0.671E-01 s, Total Time:     142.90 s
       Pressure Iterations: 1
       Maximum Velocity Error:  0.13E+00 on Mesh 1 at (36,15,6)
       Maximum Pressure Error:  0.56E+01 on Mesh 1 at (35,16,6)
       ---------------------------------------------------------------
       Max CFL number:  0.92E+00 at (35,19,8)
       Max divergence:  0.19E+01 at (34,17,2)
       Min divergence: -0.36E+00 at (36,16,8)
       Max VN number:   0.69E+00 at (36,21,7)
       Total Heat Release Rate:           2240.613 kW
       Radiation Loss to Boundaries:      -893.243 kW
 
